@<TRIPOS>MOLECULE
C8L
  144   168     0     0     0
SMALL
NO_CHARGES

@<TRIPOS>ATOM
      1 O1          7.2360   39.9110   33.8560 O.2       1 UNL1        0.0000
      2 C1          6.2280   39.3780   33.4200 C.2       1 UNL1        0.0000
      3 N1          5.2620   39.9980   32.6740 N.am      1 UNL1        0.0000
      4 C2          4.1230   39.1420   32.4210 C.3       1 UNL1        0.0000
      5 C3          5.2160   41.4350   32.5410 C.3       1 UNL1        0.0000
      6 N2          5.2740   41.9580   31.1950 N.am      1 UNL1        0.0000
      7 C4          4.2170   41.8560   30.2020 C.3       1 UNL1        0.0000
      8 C5          6.2530   42.8360   30.8120 C.2       1 UNL1        0.0000
      9 O2          7.2380   43.1340   31.4660 O.2       1 UNL1        0.0000
     10 N3          5.9270   43.3500   29.5940 N.am      1 UNL1        0.0000
     11 C6          4.6740   42.8370   29.0900 C.3       1 UNL1        0.0000
     12 C7          6.6180   44.4830   29.0280 C.3       1 UNL1        0.0000
     13 N4          7.4380   44.1660   27.8870 N.am      1 UNL1        0.0000
     14 C8          6.9450   44.0890   26.5330 C.3       1 UNL1        0.0000
     15 C9          8.8030   44.1160   27.9540 C.2       1 UNL1        0.0000
     16 O3          9.4690   44.2610   28.9700 O.2       1 UNL1        0.0000
     17 N5          9.2900   44.0600   26.6820 N.am      1 UNL1        0.0000
     18 C10         8.2390   44.0730   25.6850 C.3       1 UNL1        0.0000
     19 C11        10.6800   44.3190   26.3810 C.3       1 UNL1        0.0000
     20 N6         11.4080   43.1890   25.8630 N.am      1 UNL1        0.0000
     21 C12        11.3840   42.7730   24.4780 C.3       1 UNL1        0.0000
     22 C13        12.3900   42.5630   26.5820 C.2       1 UNL1        0.0000
     23 O4         12.6690   42.7890   27.7510 O.2       1 UNL1        0.0000
     24 N7         13.0800   41.7390   25.7410 N.am      1 UNL1        0.0000
     25 C14        12.5500   41.7580   24.3910 C.3       1 UNL1        0.0000
     26 C15        14.3790   41.2100   26.0900 C.3       1 UNL1        0.0000
     27 N8         14.4580   39.7720   26.2340 N.am      1 UNL1        0.0000
     28 C16        14.4830   38.8310   25.1340 C.3       1 UNL1        0.0000
     29 C17        14.7070   39.1740   27.4390 C.2       1 UNL1        0.0000
     30 O5         14.7890   39.7450   28.5140 O.2       1 UNL1        0.0000
     31 N9         14.9270   37.8390   27.2250 N.am      1 UNL1        0.0000
     32 C18        14.8330   37.4860   25.8230 C.3       1 UNL1        0.0000
     33 C19        15.5860   37.0100   28.2100 C.3       1 UNL1        0.0000
     34 N10        14.8040   35.8960   28.7050 N.am      1 UNL1        0.0000
     35 C20        14.5900   34.6640   27.9670 C.3       1 UNL1        0.0000
     36 C21        14.4500   35.7870   30.0190 C.2       1 UNL1        0.0000
     37 O6         14.6050   36.6440   30.8740 O.2       1 UNL1        0.0000
     38 N11        13.9980   34.5120   30.2390 N.am      1 UNL1        0.0000
     39 C22        14.0040   33.7100   29.0380 C.3       1 UNL1        0.0000
     40 C23        13.8430   33.9650   31.5680 C.3       1 UNL1        0.0000
     41 N12        12.4800   33.6780   31.9580 N.am      1 UNL1        0.0000
     42 C24        11.7540   32.4950   31.5400 C.3       1 UNL1        0.0000
     43 C25        11.8500   34.3500   32.9640 C.2       1 UNL1        0.0000
     44 O7         12.2890   35.3250   33.5510 O.2       1 UNL1        0.0000
     45 N13        10.7030   33.6680   33.2890 N.am      1 UNL1        0.0000
     46 C26        10.5230   32.4820   32.4770 C.3       1 UNL1        0.0000
     47 C27         9.9350   33.9560   34.4760 C.3       1 UNL1        0.0000
     48 N14         8.6330   34.5520   34.2490 N.am      1 UNL1        0.0000
     49 C28         7.4360   33.8120   33.8880 C.3       1 UNL1        0.0000
     50 C29         8.3820   35.8730   34.4780 C.2       1 UNL1        0.0000
     51 O8          9.2080   36.7110   34.8170 O.2       1 UNL1        0.0000
     52 N15         7.0340   36.0920   34.3170 N.am      1 UNL1        0.0000
     53 C30         6.4060   37.3140   34.7690 C.3       1 UNL1        0.0000
     54 C31         6.3130   34.8690   34.0180 C.3       1 UNL1        0.0000
     55 N16         5.7860   38.1170   33.7350 N.am      1 UNL1        0.0000
     56 C32         4.4730   37.8420   33.1910 C.3       1 UNL1        0.0000
     57 N17         4.4330   36.8260   32.1620 N.am      1 UNL1        0.0000
     58 C33         4.3820   35.4090   32.4360 C.3       1 UNL1        0.0000
     59 C34         4.1550   37.3410   30.9270 C.2       1 UNL1        0.0000
     60 O9          3.9060   36.6890   29.9340 O.2       1 UNL1        0.0000
     61 N18         3.9740   38.6930   31.0540 N.am      1 UNL1        0.0000
     62 C35         3.3410   39.4710   30.0110 C.3       1 UNL1        0.0000
     63 N19         4.1110   40.5870   29.5060 N.am      1 UNL1        0.0000
     64 C36         4.4540   40.6910   28.1810 C.2       1 UNL1        0.0000
     65 O10         4.2880   39.8210   27.3350 O.2       1 UNL1        0.0000
     66 N20         4.7880   41.9940   27.9180 N.am      1 UNL1        0.0000
     67 C37         4.9390   42.4990   26.5640 C.3       1 UNL1        0.0000
     68 N21         6.2900   42.8430   26.1750 N.am      1 UNL1        0.0000
     69 C38         6.9840   42.1530   25.2120 C.2       1 UNL1        0.0000
     70 O11         6.5970   41.1420   24.6370 O.2       1 UNL1        0.0000
     71 N22         8.1090   42.8660   24.8990 N.am      1 UNL1        0.0000
     72 C39         8.9360   42.5560   23.7540 C.3       1 UNL1        0.0000
     73 N23        10.2270   41.9930   24.0780 N.am      1 UNL1        0.0000
     74 C40        10.5490   40.6950   23.7900 C.2       1 UNL1        0.0000
     75 O12         9.7820   39.8580   23.3420 O.2       1 UNL1        0.0000
     76 N24        11.8990   40.5380   23.9570 N.am      1 UNL1        0.0000
     77 C41        12.6170   39.3840   23.4660 C.3       1 UNL1        0.0000
     78 N25        13.2080   38.5560   24.4930 N.am      1 UNL1        0.0000
     79 C42        12.7860   37.2680   24.7020 C.2       1 UNL1        0.0000
     80 O13        11.8330   36.7390   24.1540 O.2       1 UNL1        0.0000
     81 N26        13.7230   36.6270   25.4670 N.am      1 UNL1        0.0000
     82 C43        13.7540   35.1870   25.6060 C.3       1 UNL1        0.0000
     83 N27        13.5580   34.7030   26.9510 N.am      1 UNL1        0.0000
     84 C44        12.4540   33.9650   27.3000 C.2       1 UNL1        0.0000
     85 O14        11.4800   33.7660   26.5910 O.2       1 UNL1        0.0000
     86 N28        12.6970   33.3730   28.5050 N.am      1 UNL1        0.0000
     87 C45        11.8970   32.2750   29.0000 C.3       1 UNL1        0.0000
     88 N29        11.1680   32.5520   30.2140 N.am      1 UNL1        0.0000
     89 C46         9.7980   32.5850   30.2530 C.2       1 UNL1        0.0000
     90 O15         9.0530   32.5930   29.2800 O.2       1 UNL1        0.0000
     91 N30         9.4030   32.5230   31.5580 N.am      1 UNL1        0.0000
     92 C47         8.0380   32.2630   31.9440 C.3       1 UNL1        0.0000
     93 N31         7.3470   33.4010   32.5000 N.am      1 UNL1        0.0000
     94 C48         6.3090   34.0070   31.8440 C.2       1 UNL1        0.0000
     95 N32         5.6690   34.8260   32.7190 N.am      1 UNL1        0.0000
     96 O16         5.9650   33.7800   30.6910 O.2       1 UNL1        0.0000
     97 H1          3.1910   39.5770   32.8120 H         1 UNL1        0.0000
     98 H2          6.0690   41.8500   33.0980 H         1 UNL1        0.0000
     99 H3          4.2770   41.7830   32.9950 H         1 UNL1        0.0000
    100 H4          3.2470   42.1740   30.6110 H         1 UNL1        0.0000
    101 H5          3.9280   43.6340   28.9520 H         1 UNL1        0.0000
    102 H6          7.2630   44.9170   29.8060 H         1 UNL1        0.0000
    103 H7          5.8670   45.2250   28.7180 H         1 UNL1        0.0000
    104 H8          6.3280   44.9620   26.2720 H         1 UNL1        0.0000
    105 H9          8.2900   44.9700   25.0500 H         1 UNL1        0.0000
    106 H10        11.1750   44.6490   27.3060 H         1 UNL1        0.0000
    107 H11        10.7240   45.1250   25.6340 H         1 UNL1        0.0000
    108 H12        11.5610   43.6170   23.7950 H         1 UNL1        0.0000
    109 H13        13.3010   42.1000   23.6630 H         1 UNL1        0.0000
    110 H14        15.0870   41.5090   25.3030 H         1 UNL1        0.0000
    111 H15        14.6810   41.6620   27.0460 H         1 UNL1        0.0000
    112 H16        15.2570   39.0900   24.3970 H         1 UNL1        0.0000
    113 H17        15.7870   37.0990   25.4370 H         1 UNL1        0.0000
    114 H18        16.5030   36.6060   27.7560 H         1 UNL1        0.0000
    115 H19        15.8510   37.6460   29.0670 H         1 UNL1        0.0000
    116 H20        15.5330   34.2590   27.5730 H         1 UNL1        0.0000
    117 H21        14.6410   32.8200   29.1450 H         1 UNL1        0.0000
    118 H22        14.4170   33.0280   31.6200 H         1 UNL1        0.0000
    119 H23        14.2570   34.6890   32.2850 H         1 UNL1        0.0000
    120 H24        12.3500   31.5810   31.6820 H         1 UNL1        0.0000
    121 H25        10.5170   31.5670   33.0870 H         1 UNL1        0.0000
    122 H26         9.7850   33.0120   35.0200 H         1 UNL1        0.0000
    123 H27        10.5210   34.6480   35.0980 H         1 UNL1        0.0000
    124 H28         7.2530   32.9730   34.5750 H         1 UNL1        0.0000
    125 H29         7.1750   37.9290   35.2600 H         1 UNL1        0.0000
    126 H30         5.6300   37.0450   35.5000 H         1 UNL1        0.0000
    127 H31         5.6200   34.5950   34.8270 H         1 UNL1        0.0000
    128 H32         3.7320   37.6540   33.9820 H         1 UNL1        0.0000
    129 H33         3.7290   35.2470   33.3060 H         1 UNL1        0.0000
    130 H34         3.9560   34.9010   31.5580 H         1 UNL1        0.0000
    131 H35         2.3950   39.8660   30.4110 H         1 UNL1        0.0000
    132 H36         3.1300   38.7970   29.1680 H         1 UNL1        0.0000
    133 H37         4.3180   43.4020   26.4680 H         1 UNL1        0.0000
    134 H38         4.5730   41.7270   25.8710 H         1 UNL1        0.0000
    135 H39         9.0990   43.4850   23.1870 H         1 UNL1        0.0000
    136 H40         8.3950   41.8330   23.1260 H         1 UNL1        0.0000
    137 H41        11.9150   38.7640   22.8890 H         1 UNL1        0.0000
    138 H42        13.4230   39.7380   22.8060 H         1 UNL1        0.0000
    139 H43        12.9600   34.7650   24.9720 H         1 UNL1        0.0000
    140 H44        14.7330   34.8310   25.2540 H         1 UNL1        0.0000
    141 H45        11.1710   32.0030   28.2200 H         1 UNL1        0.0000
    142 H46        12.5670   31.4230   29.1910 H         1 UNL1        0.0000
    143 H47         7.4870   31.9280   31.0530 H         1 UNL1        0.0000
    144 H48         8.0400   31.4610   32.6970 H         1 UNL1        0.0000
@<TRIPOS>BOND
     1    2   55 am
     2    1    2 2
     3    2    3 am
     4    3    4 1
     5    4   56 1
     6    4   97 1
     7    3    5 1
     8    5   98 1
     9    5   99 1
    10    5    6 1
    11    6    7 1
    12    7  100 1
    13    6    8 am
    14    8    9 2
    15    8   10 am
    16   10   11 1
    17    7   11 1
    18   11  101 1
    19   10   12 1
    20   12  102 1
    21   12  103 1
    22   13   15 am
    23   12   13 1
    24   13   14 1
    25   14  104 1
    26   15   16 2
    27   15   17 am
    28   14   18 1
    29   17   18 1
    30   18  105 1
    31   17   19 1
    32   19  106 1
    33   19  107 1
    34   19   20 1
    35   20   22 am
    36   20   21 1
    37   21  108 1
    38   22   23 2
    39   24   26 1
    40   22   24 am
    41   21   25 1
    42   24   25 1
    43   25  109 1
    44   26   27 1
    45   26  110 1
    46   26  111 1
    47   27   29 am
    48   28   32 1
    49   27   28 1
    50   28  112 1
    51   29   30 2
    52   29   31 am
    53   31   33 1
    54   31   32 1
    55   32  113 1
    56   33   34 1
    57   33  114 1
    58   33  115 1
    59   34   36 am
    60   34   35 1
    61   35   39 1
    62   35  116 1
    63   36   38 am
    64   36   37 2
    65   38   40 1
    66   38   39 1
    67   39  117 1
    68   40   41 1
    69   40  118 1
    70   40  119 1
    71   41   43 am
    72   41   42 1
    73   42   46 1
    74   42  120 1
    75   43   45 am
    76   43   44 2
    77   45   47 1
    78   45   46 1
    79   46  121 1
    80   47  122 1
    81   47  123 1
    82   47   48 1
    83   48   50 am
    84   49   54 1
    85   48   49 1
    86   49  124 1
    87   50   51 2
    88   50   52 am
    89   52   53 1
    90   53  125 1
    91   53  126 1
    92   52   54 1
    93   54  127 1
    94   53   55 1
    95   55   56 1
    96   56  128 1
    97   57   58 1
    98   56   57 1
    99   58   95 1
   100   58  129 1
   101   58  130 1
   102   59   61 am
   103   57   59 am
   104   59   60 2
   105    4   61 1
   106   61   62 1
   107   62  131 1
   108   62  132 1
   109   62   63 1
   110    7   63 1
   111   63   64 am
   112   64   65 2
   113   64   66 am
   114   11   66 1
   115   66   67 1
   116   67  133 1
   117   67  134 1
   118   14   68 1
   119   67   68 1
   120   68   69 am
   121   69   70 2
   122   69   71 am
   123   18   71 1
   124   72   73 1
   125   71   72 1
   126   72  135 1
   127   72  136 1
   128   21   73 1
   129   74   76 am
   130   73   74 am
   131   74   75 2
   132   25   76 1
   133   76   77 1
   134   77   78 1
   135   77  137 1
   136   77  138 1
   137   78   79 am
   138   28   78 1
   139   79   81 am
   140   79   80 2
   141   81   82 1
   142   32   81 1
   143   82   83 1
   144   82  139 1
   145   82  140 1
   146   83   84 am
   147   35   83 1
   148   84   86 am
   149   84   85 2
   150   86   87 1
   151   39   86 1
   152   87   88 1
   153   87  141 1
   154   87  142 1
   155   88   89 am
   156   42   88 1
   157   89   91 am
   158   89   90 2
   159   91   92 1
   160   46   91 1
   161   92   93 1
   162   92  143 1
   163   92  144 1
   164   49   93 1
   165   93   94 am
   166   94   95 am
   167   54   95 1
   168   94   96 2
